<routes>
    <vType accel="1.0" decel="5.0" id="Car" length="2.0" maxSpeed="100.0" sigma="0.0" />
    <route id="route0" edges="1to2 out"/>
    <route id="route1" edges="1to3 3to2 out"/>
    <route id="route2" edges="1to4 4to2 out"/>
    <vehicle depart="1" id="veh0" route="route0" type="Car" />
    <vehicle depart="2" id="veh1" route="route1" type="Car" />
    <vehicle depart="3" id="veh2" route="route2" type="Car" />
    <vehicle depart="4" id="veh3" route="route0" type="Car" />
    <vehicle depart="5" id="veh4" route="route1" type="Car" />
    <vehicle depart="6" id="veh5" route="route2" type="Car" />
    <vehicle depart="7" id="veh6" route="route0" type="Car" />
    <vehicle depart="8" id="veh7" route="route1" type="Car" />
    <vehicle depart="9" id="veh8" route="route2" type="Car" />
</routes>