<?xml version="1.0" encoding="iso-8859-1"?>

<configuration xmlns:xsi="http://www.w3.org/2001/XMLSchema-instance"
xsi:noNamespaceSchemaLocation="http://sumo.sf.net/xsd/sumoConfiguration.xsd">

	<input>
		<gui-settings-file value="torrent.settings.xml"/>
		<net-file value="torrent.net.xml"/>
		<route-files value="torrent.rou.xml"/>
	</input>
	
	<time>
		<begin value="0"/>
		<end value="500"/>
	</time>
</configuration>